* Circuito en corriente alterna
v1 1 0 sine(0 120 60 0 0)
* v1 1 0 sin(0 120 60 0 0)
r1 0 1 10k
.tran 1
.end
